opendss_models_for_tests/load_pv_invcon/Main.dss
Clear All
Set DefaultBaseFrequency=50
New circuit.Summer_Weekday_Case
basekv=11 pu=1.00 MVAsc3=3000 MVAsc1=3000 baseMVA=0.001
Redirect EfficiencyCurves.txt
Redirect Transformer.txt
Redirect LineCode.txt
Redirect LoadShapes.txt
Redirect Lines.txt
Redirect Loads.txt
Redirect PVShapes.txt
Redirect PVSystems.txt
Redirect InvControl.txt
new monitor.pv165 element=PVSystem.PV_165 mode=1
Set voltagebases=[11  0.4]
Calcvoltagebases
set mode=yearly
set stepsize=30m
set number=48
set maxcontroliter=300
!solve