opendss_models_for_tests/load_pv_invcon/PVSystems.txt
New PVSystem.PV_1 Phases=1 Bus1=34.1 kV=0.23 kVA=6.0 Pmpp=7.2 temperature=25 PF=1 WattPriority=yes vmaxpu=1.3 vminpu=0.8 %cutin=0.1 %cutout=0.1 %PminkvarMax=-1 %PminNoVars=-1 irrad=1.0 kvarmax=6.0 kvarmaxabs=6.0 effcurve=MyEff P-TCurve=MyPvsT VarFollowInverter=true Tyearly=Temp yearly=Solar
New PVSystem.PV_2 Phases=1 Bus1=47.2 kV=0.23 kVA=6.0 Pmpp=7.2 temperature=25 PF=1 WattPriority=yes vmaxpu=1.3 vminpu=0.8 %cutin=0.1 %cutout=0.1 %PminkvarMax=-1 %PminNoVars=-1 irrad=1.0 kvarmax=6.0 kvarmaxabs=6.0 effcurve=MyEff P-TCurve=MyPvsT VarFollowInverter=true Tyearly=Temp yearly=Solar
New PVSystem.PV_3 Phases=1 Bus1=70.1 kV=0.23 kVA=6.0 Pmpp=7.2 temperature=25 PF=1 WattPriority=yes vmaxpu=1.3 vminpu=0.8 %cutin=0.1 %cutout=0.1 %PminkvarMax=-1 %PminNoVars=-1 irrad=1.0 kvarmax=6.0 kvarmaxabs=6.0 effcurve=MyEff P-TCurve=MyPvsT VarFollowInverter=true Tyearly=Temp yearly=Solar
New PVSystem.PV_4 Phases=1 Bus1=73.1 kV=0.23 kVA=6.0 Pmpp=7.2 temperature=25 PF=1 WattPriority=yes vmaxpu=1.3 vminpu=0.8 %cutin=0.1 %cutout=0.1 %PminkvarMax=-1 %PminNoVars=-1 irrad=1.0 kvarmax=6.0 kvarmaxabs=6.0 effcurve=MyEff P-TCurve=MyPvsT VarFollowInverter=true Tyearly=Temp yearly=Solar
New PVSystem.PV_5 Phases=1 Bus1=74.1 kV=0.23 kVA=6.0 Pmpp=7.2 temperature=25 PF=1 WattPriority=yes vmaxpu=1.3 vminpu=0.8 %cutin=0.1 %cutout=0.1 %PminkvarMax=-1 %PminNoVars=-1 irrad=1.0 kvarmax=6.0 kvarmaxabs=6.0 effcurve=MyEff P-TCurve=MyPvsT VarFollowInverter=true Tyearly=Temp yearly=Solar
New PVSystem.PV_6 Phases=1 Bus1=83.2 kV=0.23 kVA=6.0 Pmpp=7.2 temperature=25 PF=1 WattPriority=yes vmaxpu=1.3 vminpu=0.8 %cutin=0.1 %cutout=0.1 %PminkvarMax=-1 %PminNoVars=-1 irrad=1.0 kvarmax=6.0 kvarmaxabs=6.0 effcurve=MyEff P-TCurve=MyPvsT VarFollowInverter=true Tyearly=Temp yearly=Solar
New PVSystem.PV_7 Phases=1 Bus1=178.2 kV=0.23 kVA=6.0 Pmpp=7.2 temperature=25 PF=1 WattPriority=yes vmaxpu=1.3 vminpu=0.8 %cutin=0.1 %cutout=0.1 %PminkvarMax=-1 %PminNoVars=-1 irrad=1.0 kvarmax=6.0 kvarmaxabs=6.0 effcurve=MyEff P-TCurve=MyPvsT VarFollowInverter=true Tyearly=Temp yearly=Solar
New PVSystem.PV_8 Phases=1 Bus1=208.3 kV=0.23 kVA=6.0 Pmpp=7.2 temperature=25 PF=1 WattPriority=yes vmaxpu=1.3 vminpu=0.8 %cutin=0.1 %cutout=0.1 %PminkvarMax=-1 %PminNoVars=-1 irrad=1.0 kvarmax=6.0 kvarmaxabs=6.0 effcurve=MyEff P-TCurve=MyPvsT VarFollowInverter=true Tyearly=Temp yearly=Solar
New PVSystem.PV_9 Phases=1 Bus1=225.1 kV=0.23 kVA=6.0 Pmpp=7.2 temperature=25 PF=1 WattPriority=yes vmaxpu=1.3 vminpu=0.8 %cutin=0.1 %cutout=0.1 %PminkvarMax=-1 %PminNoVars=-1 irrad=1.0 kvarmax=6.0 kvarmaxabs=6.0 effcurve=MyEff P-TCurve=MyPvsT VarFollowInverter=true Tyearly=Temp yearly=Solar
New PVSystem.PV_10 Phases=1 Bus1=248.2 kV=0.23 kVA=6.0 Pmpp=7.2 temperature=25 PF=1 WattPriority=yes vmaxpu=1.3 vminpu=0.8 %cutin=0.1 %cutout=0.1 %PminkvarMax=-1 %PminNoVars=-1 irrad=1.0 kvarmax=6.0 kvarmaxabs=6.0 effcurve=MyEff P-TCurve=MyPvsT VarFollowInverter=true Tyearly=Temp yearly=Solar
New PVSystem.PV_11 Phases=1 Bus1=249.2 kV=0.23 kVA=6.0 Pmpp=7.2 temperature=25 PF=1 WattPriority=yes vmaxpu=1.3 vminpu=0.8 %cutin=0.1 %cutout=0.1 %PminkvarMax=-1 %PminNoVars=-1 irrad=1.0 kvarmax=6.0 kvarmaxabs=6.0 effcurve=MyEff P-TCurve=MyPvsT VarFollowInverter=true Tyearly=Temp yearly=Solar
New PVSystem.PV_12 Phases=1 Bus1=264.3 kV=0.23 kVA=6.0 Pmpp=7.2 temperature=25 PF=1 WattPriority=yes vmaxpu=1.3 vminpu=0.8 %cutin=0.1 %cutout=0.1 %PminkvarMax=-1 %PminNoVars=-1 irrad=1.0 kvarmax=6.0 kvarmaxabs=6.0 effcurve=MyEff P-TCurve=MyPvsT VarFollowInverter=true Tyearly=Temp yearly=Solar
New PVSystem.PV_13 Phases=1 Bus1=276.2 kV=0.23 kVA=6.0 Pmpp=7.2 temperature=25 PF=1 WattPriority=yes vmaxpu=1.3 vminpu=0.8 %cutin=0.1 %cutout=0.1 %PminkvarMax=-1 %PminNoVars=-1 irrad=1.0 kvarmax=6.0 kvarmaxabs=6.0 effcurve=MyEff P-TCurve=MyPvsT VarFollowInverter=true Tyearly=Temp yearly=Solar
New PVSystem.PV_14 Phases=1 Bus1=289.1 kV=0.23 kVA=6.0 Pmpp=7.2 temperature=25 PF=1 WattPriority=yes vmaxpu=1.3 vminpu=0.8 %cutin=0.1 %cutout=0.1 %PminkvarMax=-1 %PminNoVars=-1 irrad=1.0 kvarmax=6.0 kvarmaxabs=6.0 effcurve=MyEff P-TCurve=MyPvsT VarFollowInverter=true Tyearly=Temp yearly=Solar
New PVSystem.PV_15 Phases=1 Bus1=314.2 kV=0.23 kVA=6.0 Pmpp=7.2 temperature=25 PF=1 WattPriority=yes vmaxpu=1.3 vminpu=0.8 %cutin=0.1 %cutout=0.1 %PminkvarMax=-1 %PminNoVars=-1 irrad=1.0 kvarmax=6.0 kvarmaxabs=6.0 effcurve=MyEff P-TCurve=MyPvsT VarFollowInverter=true Tyearly=Temp yearly=Solar
New PVSystem.PV_16 Phases=1 Bus1=320.3 kV=0.23 kVA=6.0 Pmpp=7.2 temperature=25 PF=1 WattPriority=yes vmaxpu=1.3 vminpu=0.8 %cutin=0.1 %cutout=0.1 %PminkvarMax=-1 %PminNoVars=-1 irrad=1.0 kvarmax=6.0 kvarmaxabs=6.0 effcurve=MyEff P-TCurve=MyPvsT VarFollowInverter=true Tyearly=Temp yearly=Solar
New PVSystem.PV_17 Phases=1 Bus1=327.3 kV=0.23 kVA=6.0 Pmpp=7.2 temperature=25 PF=1 WattPriority=yes vmaxpu=1.3 vminpu=0.8 %cutin=0.1 %cutout=0.1 %PminkvarMax=-1 %PminNoVars=-1 irrad=1.0 kvarmax=6.0 kvarmaxabs=6.0 effcurve=MyEff P-TCurve=MyPvsT VarFollowInverter=true Tyearly=Temp yearly=Solar
New PVSystem.PV_18 Phases=1 Bus1=337.3 kV=0.23 kVA=6.0 Pmpp=7.2 temperature=25 PF=1 WattPriority=yes vmaxpu=1.3 vminpu=0.8 %cutin=0.1 %cutout=0.1 %PminkvarMax=-1 %PminNoVars=-1 irrad=1.0 kvarmax=6.0 kvarmaxabs=6.0 effcurve=MyEff P-TCurve=MyPvsT VarFollowInverter=true Tyearly=Temp yearly=Solar
New PVSystem.PV_19 Phases=1 Bus1=342.3 kV=0.23 kVA=6.0 Pmpp=7.2 temperature=25 PF=1 WattPriority=yes vmaxpu=1.3 vminpu=0.8 %cutin=0.1 %cutout=0.1 %PminkvarMax=-1 %PminNoVars=-1 irrad=1.0 kvarmax=6.0 kvarmaxabs=6.0 effcurve=MyEff P-TCurve=MyPvsT VarFollowInverter=true Tyearly=Temp yearly=Solar
New PVSystem.PV_20 Phases=1 Bus1=349.1 kV=0.23 kVA=6.0 Pmpp=7.2 temperature=25 PF=1 WattPriority=yes vmaxpu=1.3 vminpu=0.8 %cutin=0.1 %cutout=0.1 %PminkvarMax=-1 %PminNoVars=-1 irrad=1.0 kvarmax=6.0 kvarmaxabs=6.0 effcurve=MyEff P-TCurve=MyPvsT VarFollowInverter=true Tyearly=Temp yearly=Solar
New PVSystem.PV_21 Phases=1 Bus1=387.1 kV=0.23 kVA=6.0 Pmpp=7.2 temperature=25 PF=1 WattPriority=yes vmaxpu=1.3 vminpu=0.8 %cutin=0.1 %cutout=0.1 %PminkvarMax=-1 %PminNoVars=-1 irrad=1.0 kvarmax=6.0 kvarmaxabs=6.0 effcurve=MyEff P-TCurve=MyPvsT VarFollowInverter=true Tyearly=Temp yearly=Solar
New PVSystem.PV_22 Phases=1 Bus1=388.1 kV=0.23 kVA=6.0 Pmpp=7.2 temperature=25 PF=1 WattPriority=yes vmaxpu=1.3 vminpu=0.8 %cutin=0.1 %cutout=0.1 %PminkvarMax=-1 %PminNoVars=-1 irrad=1.0 kvarmax=6.0 kvarmaxabs=6.0 effcurve=MyEff P-TCurve=MyPvsT VarFollowInverter=true Tyearly=Temp yearly=Solar
New PVSystem.PV_23 Phases=1 Bus1=406.2 kV=0.23 kVA=6.0 Pmpp=7.2 temperature=25 PF=1 WattPriority=yes vmaxpu=1.3 vminpu=0.8 %cutin=0.1 %cutout=0.1 %PminkvarMax=-1 %PminNoVars=-1 irrad=1.0 kvarmax=6.0 kvarmaxabs=6.0 effcurve=MyEff P-TCurve=MyPvsT VarFollowInverter=true Tyearly=Temp yearly=Solar
New PVSystem.PV_24 Phases=1 Bus1=458.3 kV=0.23 kVA=6.0 Pmpp=7.2 temperature=25 PF=1 WattPriority=yes vmaxpu=1.3 vminpu=0.8 %cutin=0.1 %cutout=0.1 %PminkvarMax=-1 %PminNoVars=-1 irrad=1.0 kvarmax=6.0 kvarmaxabs=6.0 effcurve=MyEff P-TCurve=MyPvsT VarFollowInverter=true Tyearly=Temp yearly=Solar
New PVSystem.PV_25 Phases=1 Bus1=502.1 kV=0.23 kVA=6.0 Pmpp=7.2 temperature=25 PF=1 WattPriority=yes vmaxpu=1.3 vminpu=0.8 %cutin=0.1 %cutout=0.1 %PminkvarMax=-1 %PminNoVars=-1 irrad=1.0 kvarmax=6.0 kvarmaxabs=6.0 effcurve=MyEff P-TCurve=MyPvsT VarFollowInverter=true Tyearly=Temp yearly=Solar
New PVSystem.PV_26 Phases=1 Bus1=522.2 kV=0.23 kVA=6.0 Pmpp=7.2 temperature=25 PF=1 WattPriority=yes vmaxpu=1.3 vminpu=0.8 %cutin=0.1 %cutout=0.1 %PminkvarMax=-1 %PminNoVars=-1 irrad=1.0 kvarmax=6.0 kvarmaxabs=6.0 effcurve=MyEff P-TCurve=MyPvsT VarFollowInverter=true Tyearly=Temp yearly=Solar
New PVSystem.PV_27 Phases=1 Bus1=539.3 kV=0.23 kVA=6.0 Pmpp=7.2 temperature=25 PF=1 WattPriority=yes vmaxpu=1.3 vminpu=0.8 %cutin=0.1 %cutout=0.1 %PminkvarMax=-1 %PminNoVars=-1 irrad=1.0 kvarmax=6.0 kvarmaxabs=6.0 effcurve=MyEff P-TCurve=MyPvsT VarFollowInverter=true Tyearly=Temp yearly=Solar
New PVSystem.PV_28 Phases=1 Bus1=556.3 kV=0.23 kVA=6.0 Pmpp=7.2 temperature=25 PF=1 WattPriority=yes vmaxpu=1.3 vminpu=0.8 %cutin=0.1 %cutout=0.1 %PminkvarMax=-1 %PminNoVars=-1 irrad=1.0 kvarmax=6.0 kvarmaxabs=6.0 effcurve=MyEff P-TCurve=MyPvsT VarFollowInverter=true Tyearly=Temp yearly=Solar
New PVSystem.PV_29 Phases=1 Bus1=562.1 kV=0.23 kVA=6.0 Pmpp=7.2 temperature=25 PF=1 WattPriority=yes vmaxpu=1.3 vminpu=0.8 %cutin=0.1 %cutout=0.1 %PminkvarMax=-1 %PminNoVars=-1 irrad=1.0 kvarmax=6.0 kvarmaxabs=6.0 effcurve=MyEff P-TCurve=MyPvsT VarFollowInverter=true Tyearly=Temp yearly=Solar
New PVSystem.PV_30 Phases=1 Bus1=563.1 kV=0.23 kVA=6.0 Pmpp=7.2 temperature=25 PF=1 WattPriority=yes vmaxpu=1.3 vminpu=0.8 %cutin=0.1 %cutout=0.1 %PminkvarMax=-1 %PminNoVars=-1 irrad=1.0 kvarmax=6.0 kvarmaxabs=6.0 effcurve=MyEff P-TCurve=MyPvsT VarFollowInverter=true Tyearly=Temp yearly=Solar
New PVSystem.PV_31 Phases=1 Bus1=611.1 kV=0.23 kVA=6.0 Pmpp=7.2 temperature=25 PF=1 WattPriority=yes vmaxpu=1.3 vminpu=0.8 %cutin=0.1 %cutout=0.1 %PminkvarMax=-1 %PminNoVars=-1 irrad=1.0 kvarmax=6.0 kvarmaxabs=6.0 effcurve=MyEff P-TCurve=MyPvsT VarFollowInverter=true Tyearly=Temp yearly=Solar
New PVSystem.PV_32 Phases=1 Bus1=614.3 kV=0.23 kVA=6.0 Pmpp=7.2 temperature=25 PF=1 WattPriority=yes vmaxpu=1.3 vminpu=0.8 %cutin=0.1 %cutout=0.1 %PminkvarMax=-1 %PminNoVars=-1 irrad=1.0 kvarmax=6.0 kvarmaxabs=6.0 effcurve=MyEff P-TCurve=MyPvsT VarFollowInverter=true Tyearly=Temp yearly=Solar
New PVSystem.PV_33 Phases=1 Bus1=619.3 kV=0.23 kVA=6.0 Pmpp=7.2 temperature=25 PF=1 WattPriority=yes vmaxpu=1.3 vminpu=0.8 %cutin=0.1 %cutout=0.1 %PminkvarMax=-1 %PminNoVars=-1 irrad=1.0 kvarmax=6.0 kvarmaxabs=6.0 effcurve=MyEff P-TCurve=MyPvsT VarFollowInverter=true Tyearly=Temp yearly=Solar
New PVSystem.PV_34 Phases=1 Bus1=629.1 kV=0.23 kVA=6.0 Pmpp=7.2 temperature=25 PF=1 WattPriority=yes vmaxpu=1.3 vminpu=0.8 %cutin=0.1 %cutout=0.1 %PminkvarMax=-1 %PminNoVars=-1 irrad=1.0 kvarmax=6.0 kvarmaxabs=6.0 effcurve=MyEff P-TCurve=MyPvsT VarFollowInverter=true Tyearly=Temp yearly=Solar
New PVSystem.PV_35 Phases=1 Bus1=639.2 kV=0.23 kVA=6.0 Pmpp=7.2 temperature=25 PF=1 WattPriority=yes vmaxpu=1.3 vminpu=0.8 %cutin=0.1 %cutout=0.1 %PminkvarMax=-1 %PminNoVars=-1 irrad=1.0 kvarmax=6.0 kvarmaxabs=6.0 effcurve=MyEff P-TCurve=MyPvsT VarFollowInverter=true Tyearly=Temp yearly=Solar
New PVSystem.PV_36 Phases=1 Bus1=676.2 kV=0.23 kVA=6.0 Pmpp=7.2 temperature=25 PF=1 WattPriority=yes vmaxpu=1.3 vminpu=0.8 %cutin=0.1 %cutout=0.1 %PminkvarMax=-1 %PminNoVars=-1 irrad=1.0 kvarmax=6.0 kvarmaxabs=6.0 effcurve=MyEff P-TCurve=MyPvsT VarFollowInverter=true Tyearly=Temp yearly=Solar
New PVSystem.PV_37 Phases=1 Bus1=682.2 kV=0.23 kVA=6.0 Pmpp=7.2 temperature=25 PF=1 WattPriority=yes vmaxpu=1.3 vminpu=0.8 %cutin=0.1 %cutout=0.1 %PminkvarMax=-1 %PminNoVars=-1 irrad=1.0 kvarmax=6.0 kvarmaxabs=6.0 effcurve=MyEff P-TCurve=MyPvsT VarFollowInverter=true Tyearly=Temp yearly=Solar
New PVSystem.PV_38 Phases=1 Bus1=688.2 kV=0.23 kVA=6.0 Pmpp=7.2 temperature=25 PF=1 WattPriority=yes vmaxpu=1.3 vminpu=0.8 %cutin=0.1 %cutout=0.1 %PminkvarMax=-1 %PminNoVars=-1 irrad=1.0 kvarmax=6.0 kvarmaxabs=6.0 effcurve=MyEff P-TCurve=MyPvsT VarFollowInverter=true Tyearly=Temp yearly=Solar
New PVSystem.PV_39 Phases=1 Bus1=701.3 kV=0.23 kVA=6.0 Pmpp=7.2 temperature=25 PF=1 WattPriority=yes vmaxpu=1.3 vminpu=0.8 %cutin=0.1 %cutout=0.1 %PminkvarMax=-1 %PminNoVars=-1 irrad=1.0 kvarmax=6.0 kvarmaxabs=6.0 effcurve=MyEff P-TCurve=MyPvsT VarFollowInverter=true Tyearly=Temp yearly=Solar
New PVSystem.PV_40 Phases=1 Bus1=702.2 kV=0.23 kVA=6.0 Pmpp=7.2 temperature=25 PF=1 WattPriority=yes vmaxpu=1.3 vminpu=0.8 %cutin=0.1 %cutout=0.1 %PminkvarMax=-1 %PminNoVars=-1 irrad=1.0 kvarmax=6.0 kvarmaxabs=6.0 effcurve=MyEff P-TCurve=MyPvsT VarFollowInverter=true Tyearly=Temp yearly=Solar
New PVSystem.PV_41 Phases=1 Bus1=755.2 kV=0.23 kVA=6.0 Pmpp=7.2 temperature=25 PF=1 WattPriority=yes vmaxpu=1.3 vminpu=0.8 %cutin=0.1 %cutout=0.1 %PminkvarMax=-1 %PminNoVars=-1 irrad=1.0 kvarmax=6.0 kvarmaxabs=6.0 effcurve=MyEff P-TCurve=MyPvsT VarFollowInverter=true Tyearly=Temp yearly=Solar
New PVSystem.PV_42 Phases=1 Bus1=778.3 kV=0.23 kVA=6.0 Pmpp=7.2 temperature=25 PF=1 WattPriority=yes vmaxpu=1.3 vminpu=0.8 %cutin=0.1 %cutout=0.1 %PminkvarMax=-1 %PminNoVars=-1 irrad=1.0 kvarmax=6.0 kvarmaxabs=6.0 effcurve=MyEff P-TCurve=MyPvsT VarFollowInverter=true Tyearly=Temp yearly=Solar
New PVSystem.PV_43 Phases=1 Bus1=780.3 kV=0.23 kVA=6.0 Pmpp=7.2 temperature=25 PF=1 WattPriority=yes vmaxpu=1.3 vminpu=0.8 %cutin=0.1 %cutout=0.1 %PminkvarMax=-1 %PminNoVars=-1 irrad=1.0 kvarmax=6.0 kvarmaxabs=6.0 effcurve=MyEff P-TCurve=MyPvsT VarFollowInverter=true Tyearly=Temp yearly=Solar
New PVSystem.PV_44 Phases=1 Bus1=785.2 kV=0.23 kVA=6.0 Pmpp=7.2 temperature=25 PF=1 WattPriority=yes vmaxpu=1.3 vminpu=0.8 %cutin=0.1 %cutout=0.1 %PminkvarMax=-1 %PminNoVars=-1 irrad=1.0 kvarmax=6.0 kvarmaxabs=6.0 effcurve=MyEff P-TCurve=MyPvsT VarFollowInverter=true Tyearly=Temp yearly=Solar
New PVSystem.PV_45 Phases=1 Bus1=813.2 kV=0.23 kVA=6.0 Pmpp=7.2 temperature=25 PF=1 WattPriority=yes vmaxpu=1.3 vminpu=0.8 %cutin=0.1 %cutout=0.1 %PminkvarMax=-1 %PminNoVars=-1 irrad=1.0 kvarmax=6.0 kvarmaxabs=6.0 effcurve=MyEff P-TCurve=MyPvsT VarFollowInverter=true Tyearly=Temp yearly=Solar
New PVSystem.PV_46 Phases=1 Bus1=817.1 kV=0.23 kVA=6.0 Pmpp=7.2 temperature=25 PF=1 WattPriority=yes vmaxpu=1.3 vminpu=0.8 %cutin=0.1 %cutout=0.1 %PminkvarMax=-1 %PminNoVars=-1 irrad=1.0 kvarmax=6.0 kvarmaxabs=6.0 effcurve=MyEff P-TCurve=MyPvsT VarFollowInverter=true Tyearly=Temp yearly=Solar
New PVSystem.PV_47 Phases=1 Bus1=835.3 kV=0.23 kVA=6.0 Pmpp=7.2 temperature=25 PF=1 WattPriority=yes vmaxpu=1.3 vminpu=0.8 %cutin=0.1 %cutout=0.1 %PminkvarMax=-1 %PminNoVars=-1 irrad=1.0 kvarmax=6.0 kvarmaxabs=6.0 effcurve=MyEff P-TCurve=MyPvsT VarFollowInverter=true Tyearly=Temp yearly=Solar
New PVSystem.PV_48 Phases=1 Bus1=860.1 kV=0.23 kVA=6.0 Pmpp=7.2 temperature=25 PF=1 WattPriority=yes vmaxpu=1.3 vminpu=0.8 %cutin=0.1 %cutout=0.1 %PminkvarMax=-1 %PminNoVars=-1 irrad=1.0 kvarmax=6.0 kvarmaxabs=6.0 effcurve=MyEff P-TCurve=MyPvsT VarFollowInverter=true Tyearly=Temp yearly=Solar
New PVSystem.PV_49 Phases=1 Bus1=861.1 kV=0.23 kVA=6.0 Pmpp=7.2 temperature=25 PF=1 WattPriority=yes vmaxpu=1.3 vminpu=0.8 %cutin=0.1 %cutout=0.1 %PminkvarMax=-1 %PminNoVars=-1 irrad=1.0 kvarmax=6.0 kvarmaxabs=6.0 effcurve=MyEff P-TCurve=MyPvsT VarFollowInverter=true Tyearly=Temp yearly=Solar
New PVSystem.PV_50 Phases=1 Bus1=886.2 kV=0.23 kVA=6.0 Pmpp=7.2 temperature=25 PF=1 WattPriority=yes vmaxpu=1.3 vminpu=0.8 %cutin=0.1 %cutout=0.1 %PminkvarMax=-1 %PminNoVars=-1 irrad=1.0 kvarmax=6.0 kvarmaxabs=6.0 effcurve=MyEff P-TCurve=MyPvsT VarFollowInverter=true Tyearly=Temp yearly=Solar
New PVSystem.PV_51 Phases=1 Bus1=896.1 kV=0.23 kVA=6.0 Pmpp=7.2 temperature=25 PF=1 WattPriority=yes vmaxpu=1.3 vminpu=0.8 %cutin=0.1 %cutout=0.1 %PminkvarMax=-1 %PminNoVars=-1 irrad=1.0 kvarmax=6.0 kvarmaxabs=6.0 effcurve=MyEff P-TCurve=MyPvsT VarFollowInverter=true Tyearly=Temp yearly=Solar
New PVSystem.PV_52 Phases=1 Bus1=898.1 kV=0.23 kVA=6.0 Pmpp=7.2 temperature=25 PF=1 WattPriority=yes vmaxpu=1.3 vminpu=0.8 %cutin=0.1 %cutout=0.1 %PminkvarMax=-1 %PminNoVars=-1 irrad=1.0 kvarmax=6.0 kvarmaxabs=6.0 effcurve=MyEff P-TCurve=MyPvsT VarFollowInverter=true Tyearly=Temp yearly=Solar
New PVSystem.PV_53 Phases=1 Bus1=899.2 kV=0.23 kVA=6.0 Pmpp=7.2 temperature=25 PF=1 WattPriority=yes vmaxpu=1.3 vminpu=0.8 %cutin=0.1 %cutout=0.1 %PminkvarMax=-1 %PminNoVars=-1 irrad=1.0 kvarmax=6.0 kvarmaxabs=6.0 effcurve=MyEff P-TCurve=MyPvsT VarFollowInverter=true Tyearly=Temp yearly=Solar
New PVSystem.PV_54 Phases=1 Bus1=900.1 kV=0.23 kVA=6.0 Pmpp=7.2 temperature=25 PF=1 WattPriority=yes vmaxpu=1.3 vminpu=0.8 %cutin=0.1 %cutout=0.1 %PminkvarMax=-1 %PminNoVars=-1 irrad=1.0 kvarmax=6.0 kvarmaxabs=6.0 effcurve=MyEff P-TCurve=MyPvsT VarFollowInverter=true Tyearly=Temp yearly=Solar
New PVSystem.PV_55 Phases=1 Bus1=906.1 kV=0.23 kVA=6.0 Pmpp=7.2 temperature=25 PF=1 WattPriority=yes vmaxpu=1.3 vminpu=0.8 %cutin=0.1 %cutout=0.1 %PminkvarMax=-1 %PminNoVars=-1 irrad=1.0 kvarmax=6.0 kvarmaxabs=6.0 effcurve=MyEff P-TCurve=MyPvsT VarFollowInverter=true Tyearly=Temp yearly=Solar
New PVSystem.PV_56 Phases=1 Bus1=34.2 kV=0.23 kVA=6.0 Pmpp=7.2 temperature=25 PF=1 WattPriority=yes vmaxpu=1.3 vminpu=0.8 %cutin=0.1 %cutout=0.1 %PminkvarMax=-1 %PminNoVars=-1 irrad=1.0 kvarmax=6.0 kvarmaxabs=6.0 effcurve=MyEff P-TCurve=MyPvsT VarFollowInverter=true Tyearly=Temp yearly=Solar
New PVSystem.PV_57 Phases=1 Bus1=47.3 kV=0.23 kVA=6.0 Pmpp=7.2 temperature=25 PF=1 WattPriority=yes vmaxpu=1.3 vminpu=0.8 %cutin=0.1 %cutout=0.1 %PminkvarMax=-1 %PminNoVars=-1 irrad=1.0 kvarmax=6.0 kvarmaxabs=6.0 effcurve=MyEff P-TCurve=MyPvsT VarFollowInverter=true Tyearly=Temp yearly=Solar
New PVSystem.PV_58 Phases=1 Bus1=70.2 kV=0.23 kVA=6.0 Pmpp=7.2 temperature=25 PF=1 WattPriority=yes vmaxpu=1.3 vminpu=0.8 %cutin=0.1 %cutout=0.1 %PminkvarMax=-1 %PminNoVars=-1 irrad=1.0 kvarmax=6.0 kvarmaxabs=6.0 effcurve=MyEff P-TCurve=MyPvsT VarFollowInverter=true Tyearly=Temp yearly=Solar
New PVSystem.PV_59 Phases=1 Bus1=73.2 kV=0.23 kVA=6.0 Pmpp=7.2 temperature=25 PF=1 WattPriority=yes vmaxpu=1.3 vminpu=0.8 %cutin=0.1 %cutout=0.1 %PminkvarMax=-1 %PminNoVars=-1 irrad=1.0 kvarmax=6.0 kvarmaxabs=6.0 effcurve=MyEff P-TCurve=MyPvsT VarFollowInverter=true Tyearly=Temp yearly=Solar
New PVSystem.PV_60 Phases=1 Bus1=74.2 kV=0.23 kVA=6.0 Pmpp=7.2 temperature=25 PF=1 WattPriority=yes vmaxpu=1.3 vminpu=0.8 %cutin=0.1 %cutout=0.1 %PminkvarMax=-1 %PminNoVars=-1 irrad=1.0 kvarmax=6.0 kvarmaxabs=6.0 effcurve=MyEff P-TCurve=MyPvsT VarFollowInverter=true Tyearly=Temp yearly=Solar
New PVSystem.PV_61 Phases=1 Bus1=83.3 kV=0.23 kVA=6.0 Pmpp=7.2 temperature=25 PF=1 WattPriority=yes vmaxpu=1.3 vminpu=0.8 %cutin=0.1 %cutout=0.1 %PminkvarMax=-1 %PminNoVars=-1 irrad=1.0 kvarmax=6.0 kvarmaxabs=6.0 effcurve=MyEff P-TCurve=MyPvsT VarFollowInverter=true Tyearly=Temp yearly=Solar
New PVSystem.PV_62 Phases=1 Bus1=178.3 kV=0.23 kVA=6.0 Pmpp=7.2 temperature=25 PF=1 WattPriority=yes vmaxpu=1.3 vminpu=0.8 %cutin=0.1 %cutout=0.1 %PminkvarMax=-1 %PminNoVars=-1 irrad=1.0 kvarmax=6.0 kvarmaxabs=6.0 effcurve=MyEff P-TCurve=MyPvsT VarFollowInverter=true Tyearly=Temp yearly=Solar
New PVSystem.PV_63 Phases=1 Bus1=208.1 kV=0.23 kVA=6.0 Pmpp=7.2 temperature=25 PF=1 WattPriority=yes vmaxpu=1.3 vminpu=0.8 %cutin=0.1 %cutout=0.1 %PminkvarMax=-1 %PminNoVars=-1 irrad=1.0 kvarmax=6.0 kvarmaxabs=6.0 effcurve=MyEff P-TCurve=MyPvsT VarFollowInverter=true Tyearly=Temp yearly=Solar
New PVSystem.PV_64 Phases=1 Bus1=225.2 kV=0.23 kVA=6.0 Pmpp=7.2 temperature=25 PF=1 WattPriority=yes vmaxpu=1.3 vminpu=0.8 %cutin=0.1 %cutout=0.1 %PminkvarMax=-1 %PminNoVars=-1 irrad=1.0 kvarmax=6.0 kvarmaxabs=6.0 effcurve=MyEff P-TCurve=MyPvsT VarFollowInverter=true Tyearly=Temp yearly=Solar
New PVSystem.PV_65 Phases=1 Bus1=248.3 kV=0.23 kVA=6.0 Pmpp=7.2 temperature=25 PF=1 WattPriority=yes vmaxpu=1.3 vminpu=0.8 %cutin=0.1 %cutout=0.1 %PminkvarMax=-1 %PminNoVars=-1 irrad=1.0 kvarmax=6.0 kvarmaxabs=6.0 effcurve=MyEff P-TCurve=MyPvsT VarFollowInverter=true Tyearly=Temp yearly=Solar
New PVSystem.PV_66 Phases=1 Bus1=249.3 kV=0.23 kVA=6.0 Pmpp=7.2 temperature=25 PF=1 WattPriority=yes vmaxpu=1.3 vminpu=0.8 %cutin=0.1 %cutout=0.1 %PminkvarMax=-1 %PminNoVars=-1 irrad=1.0 kvarmax=6.0 kvarmaxabs=6.0 effcurve=MyEff P-TCurve=MyPvsT VarFollowInverter=true Tyearly=Temp yearly=Solar
New PVSystem.PV_67 Phases=1 Bus1=264.1 kV=0.23 kVA=6.0 Pmpp=7.2 temperature=25 PF=1 WattPriority=yes vmaxpu=1.3 vminpu=0.8 %cutin=0.1 %cutout=0.1 %PminkvarMax=-1 %PminNoVars=-1 irrad=1.0 kvarmax=6.0 kvarmaxabs=6.0 effcurve=MyEff P-TCurve=MyPvsT VarFollowInverter=true Tyearly=Temp yearly=Solar
New PVSystem.PV_68 Phases=1 Bus1=276.3 kV=0.23 kVA=6.0 Pmpp=7.2 temperature=25 PF=1 WattPriority=yes vmaxpu=1.3 vminpu=0.8 %cutin=0.1 %cutout=0.1 %PminkvarMax=-1 %PminNoVars=-1 irrad=1.0 kvarmax=6.0 kvarmaxabs=6.0 effcurve=MyEff P-TCurve=MyPvsT VarFollowInverter=true Tyearly=Temp yearly=Solar
New PVSystem.PV_69 Phases=1 Bus1=289.2 kV=0.23 kVA=6.0 Pmpp=7.2 temperature=25 PF=1 WattPriority=yes vmaxpu=1.3 vminpu=0.8 %cutin=0.1 %cutout=0.1 %PminkvarMax=-1 %PminNoVars=-1 irrad=1.0 kvarmax=6.0 kvarmaxabs=6.0 effcurve=MyEff P-TCurve=MyPvsT VarFollowInverter=true Tyearly=Temp yearly=Solar
New PVSystem.PV_70 Phases=1 Bus1=314.3 kV=0.23 kVA=6.0 Pmpp=7.2 temperature=25 PF=1 WattPriority=yes vmaxpu=1.3 vminpu=0.8 %cutin=0.1 %cutout=0.1 %PminkvarMax=-1 %PminNoVars=-1 irrad=1.0 kvarmax=6.0 kvarmaxabs=6.0 effcurve=MyEff P-TCurve=MyPvsT VarFollowInverter=true Tyearly=Temp yearly=Solar
New PVSystem.PV_71 Phases=1 Bus1=320.1 kV=0.23 kVA=6.0 Pmpp=7.2 temperature=25 PF=1 WattPriority=yes vmaxpu=1.3 vminpu=0.8 %cutin=0.1 %cutout=0.1 %PminkvarMax=-1 %PminNoVars=-1 irrad=1.0 kvarmax=6.0 kvarmaxabs=6.0 effcurve=MyEff P-TCurve=MyPvsT VarFollowInverter=true Tyearly=Temp yearly=Solar
New PVSystem.PV_72 Phases=1 Bus1=327.1 kV=0.23 kVA=6.0 Pmpp=7.2 temperature=25 PF=1 WattPriority=yes vmaxpu=1.3 vminpu=0.8 %cutin=0.1 %cutout=0.1 %PminkvarMax=-1 %PminNoVars=-1 irrad=1.0 kvarmax=6.0 kvarmaxabs=6.0 effcurve=MyEff P-TCurve=MyPvsT VarFollowInverter=true Tyearly=Temp yearly=Solar
New PVSystem.PV_73 Phases=1 Bus1=337.1 kV=0.23 kVA=6.0 Pmpp=7.2 temperature=25 PF=1 WattPriority=yes vmaxpu=1.3 vminpu=0.8 %cutin=0.1 %cutout=0.1 %PminkvarMax=-1 %PminNoVars=-1 irrad=1.0 kvarmax=6.0 kvarmaxabs=6.0 effcurve=MyEff P-TCurve=MyPvsT VarFollowInverter=true Tyearly=Temp yearly=Solar
New PVSystem.PV_74 Phases=1 Bus1=342.1 kV=0.23 kVA=6.0 Pmpp=7.2 temperature=25 PF=1 WattPriority=yes vmaxpu=1.3 vminpu=0.8 %cutin=0.1 %cutout=0.1 %PminkvarMax=-1 %PminNoVars=-1 irrad=1.0 kvarmax=6.0 kvarmaxabs=6.0 effcurve=MyEff P-TCurve=MyPvsT VarFollowInverter=true Tyearly=Temp yearly=Solar
New PVSystem.PV_75 Phases=1 Bus1=349.2 kV=0.23 kVA=6.0 Pmpp=7.2 temperature=25 PF=1 WattPriority=yes vmaxpu=1.3 vminpu=0.8 %cutin=0.1 %cutout=0.1 %PminkvarMax=-1 %PminNoVars=-1 irrad=1.0 kvarmax=6.0 kvarmaxabs=6.0 effcurve=MyEff P-TCurve=MyPvsT VarFollowInverter=true Tyearly=Temp yearly=Solar
New PVSystem.PV_76 Phases=1 Bus1=387.2 kV=0.23 kVA=6.0 Pmpp=7.2 temperature=25 PF=1 WattPriority=yes vmaxpu=1.3 vminpu=0.8 %cutin=0.1 %cutout=0.1 %PminkvarMax=-1 %PminNoVars=-1 irrad=1.0 kvarmax=6.0 kvarmaxabs=6.0 effcurve=MyEff P-TCurve=MyPvsT VarFollowInverter=true Tyearly=Temp yearly=Solar
New PVSystem.PV_77 Phases=1 Bus1=388.2 kV=0.23 kVA=6.0 Pmpp=7.2 temperature=25 PF=1 WattPriority=yes vmaxpu=1.3 vminpu=0.8 %cutin=0.1 %cutout=0.1 %PminkvarMax=-1 %PminNoVars=-1 irrad=1.0 kvarmax=6.0 kvarmaxabs=6.0 effcurve=MyEff P-TCurve=MyPvsT VarFollowInverter=true Tyearly=Temp yearly=Solar
New PVSystem.PV_78 Phases=1 Bus1=406.3 kV=0.23 kVA=6.0 Pmpp=7.2 temperature=25 PF=1 WattPriority=yes vmaxpu=1.3 vminpu=0.8 %cutin=0.1 %cutout=0.1 %PminkvarMax=-1 %PminNoVars=-1 irrad=1.0 kvarmax=6.0 kvarmaxabs=6.0 effcurve=MyEff P-TCurve=MyPvsT VarFollowInverter=true Tyearly=Temp yearly=Solar
New PVSystem.PV_79 Phases=1 Bus1=458.1 kV=0.23 kVA=6.0 Pmpp=7.2 temperature=25 PF=1 WattPriority=yes vmaxpu=1.3 vminpu=0.8 %cutin=0.1 %cutout=0.1 %PminkvarMax=-1 %PminNoVars=-1 irrad=1.0 kvarmax=6.0 kvarmaxabs=6.0 effcurve=MyEff P-TCurve=MyPvsT VarFollowInverter=true Tyearly=Temp yearly=Solar
New PVSystem.PV_80 Phases=1 Bus1=502.2 kV=0.23 kVA=6.0 Pmpp=7.2 temperature=25 PF=1 WattPriority=yes vmaxpu=1.3 vminpu=0.8 %cutin=0.1 %cutout=0.1 %PminkvarMax=-1 %PminNoVars=-1 irrad=1.0 kvarmax=6.0 kvarmaxabs=6.0 effcurve=MyEff P-TCurve=MyPvsT VarFollowInverter=true Tyearly=Temp yearly=Solar
New PVSystem.PV_81 Phases=1 Bus1=522.3 kV=0.23 kVA=6.0 Pmpp=7.2 temperature=25 PF=1 WattPriority=yes vmaxpu=1.3 vminpu=0.8 %cutin=0.1 %cutout=0.1 %PminkvarMax=-1 %PminNoVars=-1 irrad=1.0 kvarmax=6.0 kvarmaxabs=6.0 effcurve=MyEff P-TCurve=MyPvsT VarFollowInverter=true Tyearly=Temp yearly=Solar
New PVSystem.PV_82 Phases=1 Bus1=539.1 kV=0.23 kVA=6.0 Pmpp=7.2 temperature=25 PF=1 WattPriority=yes vmaxpu=1.3 vminpu=0.8 %cutin=0.1 %cutout=0.1 %PminkvarMax=-1 %PminNoVars=-1 irrad=1.0 kvarmax=6.0 kvarmaxabs=6.0 effcurve=MyEff P-TCurve=MyPvsT VarFollowInverter=true Tyearly=Temp yearly=Solar
New PVSystem.PV_83 Phases=1 Bus1=556.1 kV=0.23 kVA=6.0 Pmpp=7.2 temperature=25 PF=1 WattPriority=yes vmaxpu=1.3 vminpu=0.8 %cutin=0.1 %cutout=0.1 %PminkvarMax=-1 %PminNoVars=-1 irrad=1.0 kvarmax=6.0 kvarmaxabs=6.0 effcurve=MyEff P-TCurve=MyPvsT VarFollowInverter=true Tyearly=Temp yearly=Solar
New PVSystem.PV_84 Phases=1 Bus1=562.2 kV=0.23 kVA=6.0 Pmpp=7.2 temperature=25 PF=1 WattPriority=yes vmaxpu=1.3 vminpu=0.8 %cutin=0.1 %cutout=0.1 %PminkvarMax=-1 %PminNoVars=-1 irrad=1.0 kvarmax=6.0 kvarmaxabs=6.0 effcurve=MyEff P-TCurve=MyPvsT VarFollowInverter=true Tyearly=Temp yearly=Solar
New PVSystem.PV_85 Phases=1 Bus1=563.2 kV=0.23 kVA=6.0 Pmpp=7.2 temperature=25 PF=1 WattPriority=yes vmaxpu=1.3 vminpu=0.8 %cutin=0.1 %cutout=0.1 %PminkvarMax=-1 %PminNoVars=-1 irrad=1.0 kvarmax=6.0 kvarmaxabs=6.0 effcurve=MyEff P-TCurve=MyPvsT VarFollowInverter=true Tyearly=Temp yearly=Solar
New PVSystem.PV_86 Phases=1 Bus1=611.2 kV=0.23 kVA=6.0 Pmpp=7.2 temperature=25 PF=1 WattPriority=yes vmaxpu=1.3 vminpu=0.8 %cutin=0.1 %cutout=0.1 %PminkvarMax=-1 %PminNoVars=-1 irrad=1.0 kvarmax=6.0 kvarmaxabs=6.0 effcurve=MyEff P-TCurve=MyPvsT VarFollowInverter=true Tyearly=Temp yearly=Solar
New PVSystem.PV_87 Phases=1 Bus1=614.1 kV=0.23 kVA=6.0 Pmpp=7.2 temperature=25 PF=1 WattPriority=yes vmaxpu=1.3 vminpu=0.8 %cutin=0.1 %cutout=0.1 %PminkvarMax=-1 %PminNoVars=-1 irrad=1.0 kvarmax=6.0 kvarmaxabs=6.0 effcurve=MyEff P-TCurve=MyPvsT VarFollowInverter=true Tyearly=Temp yearly=Solar
New PVSystem.PV_88 Phases=1 Bus1=619.1 kV=0.23 kVA=6.0 Pmpp=7.2 temperature=25 PF=1 WattPriority=yes vmaxpu=1.3 vminpu=0.8 %cutin=0.1 %cutout=0.1 %PminkvarMax=-1 %PminNoVars=-1 irrad=1.0 kvarmax=6.0 kvarmaxabs=6.0 effcurve=MyEff P-TCurve=MyPvsT VarFollowInverter=true Tyearly=Temp yearly=Solar
New PVSystem.PV_89 Phases=1 Bus1=629.2 kV=0.23 kVA=6.0 Pmpp=7.2 temperature=25 PF=1 WattPriority=yes vmaxpu=1.3 vminpu=0.8 %cutin=0.1 %cutout=0.1 %PminkvarMax=-1 %PminNoVars=-1 irrad=1.0 kvarmax=6.0 kvarmaxabs=6.0 effcurve=MyEff P-TCurve=MyPvsT VarFollowInverter=true Tyearly=Temp yearly=Solar
New PVSystem.PV_90 Phases=1 Bus1=639.3 kV=0.23 kVA=6.0 Pmpp=7.2 temperature=25 PF=1 WattPriority=yes vmaxpu=1.3 vminpu=0.8 %cutin=0.1 %cutout=0.1 %PminkvarMax=-1 %PminNoVars=-1 irrad=1.0 kvarmax=6.0 kvarmaxabs=6.0 effcurve=MyEff P-TCurve=MyPvsT VarFollowInverter=true Tyearly=Temp yearly=Solar
New PVSystem.PV_91 Phases=1 Bus1=676.3 kV=0.23 kVA=6.0 Pmpp=7.2 temperature=25 PF=1 WattPriority=yes vmaxpu=1.3 vminpu=0.8 %cutin=0.1 %cutout=0.1 %PminkvarMax=-1 %PminNoVars=-1 irrad=1.0 kvarmax=6.0 kvarmaxabs=6.0 effcurve=MyEff P-TCurve=MyPvsT VarFollowInverter=true Tyearly=Temp yearly=Solar
New PVSystem.PV_92 Phases=1 Bus1=682.3 kV=0.23 kVA=6.0 Pmpp=7.2 temperature=25 PF=1 WattPriority=yes vmaxpu=1.3 vminpu=0.8 %cutin=0.1 %cutout=0.1 %PminkvarMax=-1 %PminNoVars=-1 irrad=1.0 kvarmax=6.0 kvarmaxabs=6.0 effcurve=MyEff P-TCurve=MyPvsT VarFollowInverter=true Tyearly=Temp yearly=Solar
New PVSystem.PV_93 Phases=1 Bus1=688.3 kV=0.23 kVA=6.0 Pmpp=7.2 temperature=25 PF=1 WattPriority=yes vmaxpu=1.3 vminpu=0.8 %cutin=0.1 %cutout=0.1 %PminkvarMax=-1 %PminNoVars=-1 irrad=1.0 kvarmax=6.0 kvarmaxabs=6.0 effcurve=MyEff P-TCurve=MyPvsT VarFollowInverter=true Tyearly=Temp yearly=Solar
New PVSystem.PV_94 Phases=1 Bus1=701.1 kV=0.23 kVA=6.0 Pmpp=7.2 temperature=25 PF=1 WattPriority=yes vmaxpu=1.3 vminpu=0.8 %cutin=0.1 %cutout=0.1 %PminkvarMax=-1 %PminNoVars=-1 irrad=1.0 kvarmax=6.0 kvarmaxabs=6.0 effcurve=MyEff P-TCurve=MyPvsT VarFollowInverter=true Tyearly=Temp yearly=Solar
New PVSystem.PV_95 Phases=1 Bus1=702.3 kV=0.23 kVA=6.0 Pmpp=7.2 temperature=25 PF=1 WattPriority=yes vmaxpu=1.3 vminpu=0.8 %cutin=0.1 %cutout=0.1 %PminkvarMax=-1 %PminNoVars=-1 irrad=1.0 kvarmax=6.0 kvarmaxabs=6.0 effcurve=MyEff P-TCurve=MyPvsT VarFollowInverter=true Tyearly=Temp yearly=Solar
New PVSystem.PV_96 Phases=1 Bus1=755.3 kV=0.23 kVA=6.0 Pmpp=7.2 temperature=25 PF=1 WattPriority=yes vmaxpu=1.3 vminpu=0.8 %cutin=0.1 %cutout=0.1 %PminkvarMax=-1 %PminNoVars=-1 irrad=1.0 kvarmax=6.0 kvarmaxabs=6.0 effcurve=MyEff P-TCurve=MyPvsT VarFollowInverter=true Tyearly=Temp yearly=Solar
New PVSystem.PV_97 Phases=1 Bus1=778.1 kV=0.23 kVA=6.0 Pmpp=7.2 temperature=25 PF=1 WattPriority=yes vmaxpu=1.3 vminpu=0.8 %cutin=0.1 %cutout=0.1 %PminkvarMax=-1 %PminNoVars=-1 irrad=1.0 kvarmax=6.0 kvarmaxabs=6.0 effcurve=MyEff P-TCurve=MyPvsT VarFollowInverter=true Tyearly=Temp yearly=Solar
New PVSystem.PV_98 Phases=1 Bus1=780.1 kV=0.23 kVA=6.0 Pmpp=7.2 temperature=25 PF=1 WattPriority=yes vmaxpu=1.3 vminpu=0.8 %cutin=0.1 %cutout=0.1 %PminkvarMax=-1 %PminNoVars=-1 irrad=1.0 kvarmax=6.0 kvarmaxabs=6.0 effcurve=MyEff P-TCurve=MyPvsT VarFollowInverter=true Tyearly=Temp yearly=Solar
New PVSystem.PV_99 Phases=1 Bus1=785.3 kV=0.23 kVA=6.0 Pmpp=7.2 temperature=25 PF=1 WattPriority=yes vmaxpu=1.3 vminpu=0.8 %cutin=0.1 %cutout=0.1 %PminkvarMax=-1 %PminNoVars=-1 irrad=1.0 kvarmax=6.0 kvarmaxabs=6.0 effcurve=MyEff P-TCurve=MyPvsT VarFollowInverter=true Tyearly=Temp yearly=Solar
New PVSystem.PV_100 Phases=1 Bus1=813.3 kV=0.23 kVA=6.0 Pmpp=7.2 temperature=25 PF=1 WattPriority=yes vmaxpu=1.3 vminpu=0.8 %cutin=0.1 %cutout=0.1 %PminkvarMax=-1 %PminNoVars=-1 irrad=1.0 kvarmax=6.0 kvarmaxabs=6.0 effcurve=MyEff P-TCurve=MyPvsT VarFollowInverter=true Tyearly=Temp yearly=Solar
New PVSystem.PV_101 Phases=1 Bus1=817.2 kV=0.23 kVA=6.0 Pmpp=7.2 temperature=25 PF=1 WattPriority=yes vmaxpu=1.3 vminpu=0.8 %cutin=0.1 %cutout=0.1 %PminkvarMax=-1 %PminNoVars=-1 irrad=1.0 kvarmax=6.0 kvarmaxabs=6.0 effcurve=MyEff P-TCurve=MyPvsT VarFollowInverter=true Tyearly=Temp yearly=Solar
New PVSystem.PV_102 Phases=1 Bus1=835.1 kV=0.23 kVA=6.0 Pmpp=7.2 temperature=25 PF=1 WattPriority=yes vmaxpu=1.3 vminpu=0.8 %cutin=0.1 %cutout=0.1 %PminkvarMax=-1 %PminNoVars=-1 irrad=1.0 kvarmax=6.0 kvarmaxabs=6.0 effcurve=MyEff P-TCurve=MyPvsT VarFollowInverter=true Tyearly=Temp yearly=Solar
New PVSystem.PV_103 Phases=1 Bus1=860.2 kV=0.23 kVA=6.0 Pmpp=7.2 temperature=25 PF=1 WattPriority=yes vmaxpu=1.3 vminpu=0.8 %cutin=0.1 %cutout=0.1 %PminkvarMax=-1 %PminNoVars=-1 irrad=1.0 kvarmax=6.0 kvarmaxabs=6.0 effcurve=MyEff P-TCurve=MyPvsT VarFollowInverter=true Tyearly=Temp yearly=Solar
New PVSystem.PV_104 Phases=1 Bus1=861.2 kV=0.23 kVA=6.0 Pmpp=7.2 temperature=25 PF=1 WattPriority=yes vmaxpu=1.3 vminpu=0.8 %cutin=0.1 %cutout=0.1 %PminkvarMax=-1 %PminNoVars=-1 irrad=1.0 kvarmax=6.0 kvarmaxabs=6.0 effcurve=MyEff P-TCurve=MyPvsT VarFollowInverter=true Tyearly=Temp yearly=Solar
New PVSystem.PV_105 Phases=1 Bus1=886.3 kV=0.23 kVA=6.0 Pmpp=7.2 temperature=25 PF=1 WattPriority=yes vmaxpu=1.3 vminpu=0.8 %cutin=0.1 %cutout=0.1 %PminkvarMax=-1 %PminNoVars=-1 irrad=1.0 kvarmax=6.0 kvarmaxabs=6.0 effcurve=MyEff P-TCurve=MyPvsT VarFollowInverter=true Tyearly=Temp yearly=Solar
New PVSystem.PV_106 Phases=1 Bus1=896.2 kV=0.23 kVA=6.0 Pmpp=7.2 temperature=25 PF=1 WattPriority=yes vmaxpu=1.3 vminpu=0.8 %cutin=0.1 %cutout=0.1 %PminkvarMax=-1 %PminNoVars=-1 irrad=1.0 kvarmax=6.0 kvarmaxabs=6.0 effcurve=MyEff P-TCurve=MyPvsT VarFollowInverter=true Tyearly=Temp yearly=Solar
New PVSystem.PV_107 Phases=1 Bus1=898.2 kV=0.23 kVA=6.0 Pmpp=7.2 temperature=25 PF=1 WattPriority=yes vmaxpu=1.3 vminpu=0.8 %cutin=0.1 %cutout=0.1 %PminkvarMax=-1 %PminNoVars=-1 irrad=1.0 kvarmax=6.0 kvarmaxabs=6.0 effcurve=MyEff P-TCurve=MyPvsT VarFollowInverter=true Tyearly=Temp yearly=Solar
New PVSystem.PV_108 Phases=1 Bus1=899.3 kV=0.23 kVA=6.0 Pmpp=7.2 temperature=25 PF=1 WattPriority=yes vmaxpu=1.3 vminpu=0.8 %cutin=0.1 %cutout=0.1 %PminkvarMax=-1 %PminNoVars=-1 irrad=1.0 kvarmax=6.0 kvarmaxabs=6.0 effcurve=MyEff P-TCurve=MyPvsT VarFollowInverter=true Tyearly=Temp yearly=Solar
New PVSystem.PV_109 Phases=1 Bus1=900.2 kV=0.23 kVA=6.0 Pmpp=7.2 temperature=25 PF=1 WattPriority=yes vmaxpu=1.3 vminpu=0.8 %cutin=0.1 %cutout=0.1 %PminkvarMax=-1 %PminNoVars=-1 irrad=1.0 kvarmax=6.0 kvarmaxabs=6.0 effcurve=MyEff P-TCurve=MyPvsT VarFollowInverter=true Tyearly=Temp yearly=Solar
New PVSystem.PV_110 Phases=1 Bus1=906.2 kV=0.23 kVA=6.0 Pmpp=7.2 temperature=25 PF=1 WattPriority=yes vmaxpu=1.3 vminpu=0.8 %cutin=0.1 %cutout=0.1 %PminkvarMax=-1 %PminNoVars=-1 irrad=1.0 kvarmax=6.0 kvarmaxabs=6.0 effcurve=MyEff P-TCurve=MyPvsT VarFollowInverter=true Tyearly=Temp yearly=Solar
New PVSystem.PV_111 Phases=1 Bus1=34.3 kV=0.23 kVA=6.0 Pmpp=7.2 temperature=25 PF=1 WattPriority=yes vmaxpu=1.3 vminpu=0.8 %cutin=0.1 %cutout=0.1 %PminkvarMax=-1 %PminNoVars=-1 irrad=1.0 kvarmax=6.0 kvarmaxabs=6.0 effcurve=MyEff P-TCurve=MyPvsT VarFollowInverter=true Tyearly=Temp yearly=Solar
New PVSystem.PV_112 Phases=1 Bus1=47.1 kV=0.23 kVA=6.0 Pmpp=7.2 temperature=25 PF=1 WattPriority=yes vmaxpu=1.3 vminpu=0.8 %cutin=0.1 %cutout=0.1 %PminkvarMax=-1 %PminNoVars=-1 irrad=1.0 kvarmax=6.0 kvarmaxabs=6.0 effcurve=MyEff P-TCurve=MyPvsT VarFollowInverter=true Tyearly=Temp yearly=Solar
New PVSystem.PV_113 Phases=1 Bus1=70.3 kV=0.23 kVA=6.0 Pmpp=7.2 temperature=25 PF=1 WattPriority=yes vmaxpu=1.3 vminpu=0.8 %cutin=0.1 %cutout=0.1 %PminkvarMax=-1 %PminNoVars=-1 irrad=1.0 kvarmax=6.0 kvarmaxabs=6.0 effcurve=MyEff P-TCurve=MyPvsT VarFollowInverter=true Tyearly=Temp yearly=Solar
New PVSystem.PV_114 Phases=1 Bus1=73.3 kV=0.23 kVA=6.0 Pmpp=7.2 temperature=25 PF=1 WattPriority=yes vmaxpu=1.3 vminpu=0.8 %cutin=0.1 %cutout=0.1 %PminkvarMax=-1 %PminNoVars=-1 irrad=1.0 kvarmax=6.0 kvarmaxabs=6.0 effcurve=MyEff P-TCurve=MyPvsT VarFollowInverter=true Tyearly=Temp yearly=Solar
New PVSystem.PV_115 Phases=1 Bus1=74.3 kV=0.23 kVA=6.0 Pmpp=7.2 temperature=25 PF=1 WattPriority=yes vmaxpu=1.3 vminpu=0.8 %cutin=0.1 %cutout=0.1 %PminkvarMax=-1 %PminNoVars=-1 irrad=1.0 kvarmax=6.0 kvarmaxabs=6.0 effcurve=MyEff P-TCurve=MyPvsT VarFollowInverter=true Tyearly=Temp yearly=Solar
New PVSystem.PV_116 Phases=1 Bus1=83.1 kV=0.23 kVA=6.0 Pmpp=7.2 temperature=25 PF=1 WattPriority=yes vmaxpu=1.3 vminpu=0.8 %cutin=0.1 %cutout=0.1 %PminkvarMax=-1 %PminNoVars=-1 irrad=1.0 kvarmax=6.0 kvarmaxabs=6.0 effcurve=MyEff P-TCurve=MyPvsT VarFollowInverter=true Tyearly=Temp yearly=Solar
New PVSystem.PV_117 Phases=1 Bus1=178.1 kV=0.23 kVA=6.0 Pmpp=7.2 temperature=25 PF=1 WattPriority=yes vmaxpu=1.3 vminpu=0.8 %cutin=0.1 %cutout=0.1 %PminkvarMax=-1 %PminNoVars=-1 irrad=1.0 kvarmax=6.0 kvarmaxabs=6.0 effcurve=MyEff P-TCurve=MyPvsT VarFollowInverter=true Tyearly=Temp yearly=Solar
New PVSystem.PV_118 Phases=1 Bus1=208.2 kV=0.23 kVA=6.0 Pmpp=7.2 temperature=25 PF=1 WattPriority=yes vmaxpu=1.3 vminpu=0.8 %cutin=0.1 %cutout=0.1 %PminkvarMax=-1 %PminNoVars=-1 irrad=1.0 kvarmax=6.0 kvarmaxabs=6.0 effcurve=MyEff P-TCurve=MyPvsT VarFollowInverter=true Tyearly=Temp yearly=Solar
New PVSystem.PV_119 Phases=1 Bus1=225.3 kV=0.23 kVA=6.0 Pmpp=7.2 temperature=25 PF=1 WattPriority=yes vmaxpu=1.3 vminpu=0.8 %cutin=0.1 %cutout=0.1 %PminkvarMax=-1 %PminNoVars=-1 irrad=1.0 kvarmax=6.0 kvarmaxabs=6.0 effcurve=MyEff P-TCurve=MyPvsT VarFollowInverter=true Tyearly=Temp yearly=Solar
New PVSystem.PV_120 Phases=1 Bus1=248.1 kV=0.23 kVA=6.0 Pmpp=7.2 temperature=25 PF=1 WattPriority=yes vmaxpu=1.3 vminpu=0.8 %cutin=0.1 %cutout=0.1 %PminkvarMax=-1 %PminNoVars=-1 irrad=1.0 kvarmax=6.0 kvarmaxabs=6.0 effcurve=MyEff P-TCurve=MyPvsT VarFollowInverter=true Tyearly=Temp yearly=Solar
New PVSystem.PV_121 Phases=1 Bus1=249.1 kV=0.23 kVA=6.0 Pmpp=7.2 temperature=25 PF=1 WattPriority=yes vmaxpu=1.3 vminpu=0.8 %cutin=0.1 %cutout=0.1 %PminkvarMax=-1 %PminNoVars=-1 irrad=1.0 kvarmax=6.0 kvarmaxabs=6.0 effcurve=MyEff P-TCurve=MyPvsT VarFollowInverter=true Tyearly=Temp yearly=Solar
New PVSystem.PV_122 Phases=1 Bus1=264.2 kV=0.23 kVA=6.0 Pmpp=7.2 temperature=25 PF=1 WattPriority=yes vmaxpu=1.3 vminpu=0.8 %cutin=0.1 %cutout=0.1 %PminkvarMax=-1 %PminNoVars=-1 irrad=1.0 kvarmax=6.0 kvarmaxabs=6.0 effcurve=MyEff P-TCurve=MyPvsT VarFollowInverter=true Tyearly=Temp yearly=Solar
New PVSystem.PV_123 Phases=1 Bus1=276.1 kV=0.23 kVA=6.0 Pmpp=7.2 temperature=25 PF=1 WattPriority=yes vmaxpu=1.3 vminpu=0.8 %cutin=0.1 %cutout=0.1 %PminkvarMax=-1 %PminNoVars=-1 irrad=1.0 kvarmax=6.0 kvarmaxabs=6.0 effcurve=MyEff P-TCurve=MyPvsT VarFollowInverter=true Tyearly=Temp yearly=Solar
New PVSystem.PV_124 Phases=1 Bus1=289.3 kV=0.23 kVA=6.0 Pmpp=7.2 temperature=25 PF=1 WattPriority=yes vmaxpu=1.3 vminpu=0.8 %cutin=0.1 %cutout=0.1 %PminkvarMax=-1 %PminNoVars=-1 irrad=1.0 kvarmax=6.0 kvarmaxabs=6.0 effcurve=MyEff P-TCurve=MyPvsT VarFollowInverter=true Tyearly=Temp yearly=Solar
New PVSystem.PV_125 Phases=1 Bus1=314.1 kV=0.23 kVA=6.0 Pmpp=7.2 temperature=25 PF=1 WattPriority=yes vmaxpu=1.3 vminpu=0.8 %cutin=0.1 %cutout=0.1 %PminkvarMax=-1 %PminNoVars=-1 irrad=1.0 kvarmax=6.0 kvarmaxabs=6.0 effcurve=MyEff P-TCurve=MyPvsT VarFollowInverter=true Tyearly=Temp yearly=Solar
New PVSystem.PV_126 Phases=1 Bus1=320.2 kV=0.23 kVA=6.0 Pmpp=7.2 temperature=25 PF=1 WattPriority=yes vmaxpu=1.3 vminpu=0.8 %cutin=0.1 %cutout=0.1 %PminkvarMax=-1 %PminNoVars=-1 irrad=1.0 kvarmax=6.0 kvarmaxabs=6.0 effcurve=MyEff P-TCurve=MyPvsT VarFollowInverter=true Tyearly=Temp yearly=Solar
New PVSystem.PV_127 Phases=1 Bus1=327.2 kV=0.23 kVA=6.0 Pmpp=7.2 temperature=25 PF=1 WattPriority=yes vmaxpu=1.3 vminpu=0.8 %cutin=0.1 %cutout=0.1 %PminkvarMax=-1 %PminNoVars=-1 irrad=1.0 kvarmax=6.0 kvarmaxabs=6.0 effcurve=MyEff P-TCurve=MyPvsT VarFollowInverter=true Tyearly=Temp yearly=Solar
New PVSystem.PV_128 Phases=1 Bus1=337.2 kV=0.23 kVA=6.0 Pmpp=7.2 temperature=25 PF=1 WattPriority=yes vmaxpu=1.3 vminpu=0.8 %cutin=0.1 %cutout=0.1 %PminkvarMax=-1 %PminNoVars=-1 irrad=1.0 kvarmax=6.0 kvarmaxabs=6.0 effcurve=MyEff P-TCurve=MyPvsT VarFollowInverter=true Tyearly=Temp yearly=Solar
New PVSystem.PV_129 Phases=1 Bus1=342.2 kV=0.23 kVA=6.0 Pmpp=7.2 temperature=25 PF=1 WattPriority=yes vmaxpu=1.3 vminpu=0.8 %cutin=0.1 %cutout=0.1 %PminkvarMax=-1 %PminNoVars=-1 irrad=1.0 kvarmax=6.0 kvarmaxabs=6.0 effcurve=MyEff P-TCurve=MyPvsT VarFollowInverter=true Tyearly=Temp yearly=Solar
New PVSystem.PV_130 Phases=1 Bus1=349.3 kV=0.23 kVA=6.0 Pmpp=7.2 temperature=25 PF=1 WattPriority=yes vmaxpu=1.3 vminpu=0.8 %cutin=0.1 %cutout=0.1 %PminkvarMax=-1 %PminNoVars=-1 irrad=1.0 kvarmax=6.0 kvarmaxabs=6.0 effcurve=MyEff P-TCurve=MyPvsT VarFollowInverter=true Tyearly=Temp yearly=Solar
New PVSystem.PV_131 Phases=1 Bus1=387.3 kV=0.23 kVA=6.0 Pmpp=7.2 temperature=25 PF=1 WattPriority=yes vmaxpu=1.3 vminpu=0.8 %cutin=0.1 %cutout=0.1 %PminkvarMax=-1 %PminNoVars=-1 irrad=1.0 kvarmax=6.0 kvarmaxabs=6.0 effcurve=MyEff P-TCurve=MyPvsT VarFollowInverter=true Tyearly=Temp yearly=Solar
New PVSystem.PV_132 Phases=1 Bus1=388.3 kV=0.23 kVA=6.0 Pmpp=7.2 temperature=25 PF=1 WattPriority=yes vmaxpu=1.3 vminpu=0.8 %cutin=0.1 %cutout=0.1 %PminkvarMax=-1 %PminNoVars=-1 irrad=1.0 kvarmax=6.0 kvarmaxabs=6.0 effcurve=MyEff P-TCurve=MyPvsT VarFollowInverter=true Tyearly=Temp yearly=Solar
New PVSystem.PV_133 Phases=1 Bus1=406.1 kV=0.23 kVA=6.0 Pmpp=7.2 temperature=25 PF=1 WattPriority=yes vmaxpu=1.3 vminpu=0.8 %cutin=0.1 %cutout=0.1 %PminkvarMax=-1 %PminNoVars=-1 irrad=1.0 kvarmax=6.0 kvarmaxabs=6.0 effcurve=MyEff P-TCurve=MyPvsT VarFollowInverter=true Tyearly=Temp yearly=Solar
New PVSystem.PV_134 Phases=1 Bus1=458.2 kV=0.23 kVA=6.0 Pmpp=7.2 temperature=25 PF=1 WattPriority=yes vmaxpu=1.3 vminpu=0.8 %cutin=0.1 %cutout=0.1 %PminkvarMax=-1 %PminNoVars=-1 irrad=1.0 kvarmax=6.0 kvarmaxabs=6.0 effcurve=MyEff P-TCurve=MyPvsT VarFollowInverter=true Tyearly=Temp yearly=Solar
New PVSystem.PV_135 Phases=1 Bus1=502.3 kV=0.23 kVA=6.0 Pmpp=7.2 temperature=25 PF=1 WattPriority=yes vmaxpu=1.3 vminpu=0.8 %cutin=0.1 %cutout=0.1 %PminkvarMax=-1 %PminNoVars=-1 irrad=1.0 kvarmax=6.0 kvarmaxabs=6.0 effcurve=MyEff P-TCurve=MyPvsT VarFollowInverter=true Tyearly=Temp yearly=Solar
New PVSystem.PV_136 Phases=1 Bus1=522.1 kV=0.23 kVA=6.0 Pmpp=7.2 temperature=25 PF=1 WattPriority=yes vmaxpu=1.3 vminpu=0.8 %cutin=0.1 %cutout=0.1 %PminkvarMax=-1 %PminNoVars=-1 irrad=1.0 kvarmax=6.0 kvarmaxabs=6.0 effcurve=MyEff P-TCurve=MyPvsT VarFollowInverter=true Tyearly=Temp yearly=Solar
New PVSystem.PV_137 Phases=1 Bus1=539.2 kV=0.23 kVA=6.0 Pmpp=7.2 temperature=25 PF=1 WattPriority=yes vmaxpu=1.3 vminpu=0.8 %cutin=0.1 %cutout=0.1 %PminkvarMax=-1 %PminNoVars=-1 irrad=1.0 kvarmax=6.0 kvarmaxabs=6.0 effcurve=MyEff P-TCurve=MyPvsT VarFollowInverter=true Tyearly=Temp yearly=Solar
New PVSystem.PV_138 Phases=1 Bus1=556.2 kV=0.23 kVA=6.0 Pmpp=7.2 temperature=25 PF=1 WattPriority=yes vmaxpu=1.3 vminpu=0.8 %cutin=0.1 %cutout=0.1 %PminkvarMax=-1 %PminNoVars=-1 irrad=1.0 kvarmax=6.0 kvarmaxabs=6.0 effcurve=MyEff P-TCurve=MyPvsT VarFollowInverter=true Tyearly=Temp yearly=Solar
New PVSystem.PV_139 Phases=1 Bus1=562.3 kV=0.23 kVA=6.0 Pmpp=7.2 temperature=25 PF=1 WattPriority=yes vmaxpu=1.3 vminpu=0.8 %cutin=0.1 %cutout=0.1 %PminkvarMax=-1 %PminNoVars=-1 irrad=1.0 kvarmax=6.0 kvarmaxabs=6.0 effcurve=MyEff P-TCurve=MyPvsT VarFollowInverter=true Tyearly=Temp yearly=Solar
New PVSystem.PV_140 Phases=1 Bus1=563.3 kV=0.23 kVA=6.0 Pmpp=7.2 temperature=25 PF=1 WattPriority=yes vmaxpu=1.3 vminpu=0.8 %cutin=0.1 %cutout=0.1 %PminkvarMax=-1 %PminNoVars=-1 irrad=1.0 kvarmax=6.0 kvarmaxabs=6.0 effcurve=MyEff P-TCurve=MyPvsT VarFollowInverter=true Tyearly=Temp yearly=Solar
New PVSystem.PV_141 Phases=1 Bus1=611.3 kV=0.23 kVA=6.0 Pmpp=7.2 temperature=25 PF=1 WattPriority=yes vmaxpu=1.3 vminpu=0.8 %cutin=0.1 %cutout=0.1 %PminkvarMax=-1 %PminNoVars=-1 irrad=1.0 kvarmax=6.0 kvarmaxabs=6.0 effcurve=MyEff P-TCurve=MyPvsT VarFollowInverter=true Tyearly=Temp yearly=Solar
New PVSystem.PV_142 Phases=1 Bus1=614.2 kV=0.23 kVA=6.0 Pmpp=7.2 temperature=25 PF=1 WattPriority=yes vmaxpu=1.3 vminpu=0.8 %cutin=0.1 %cutout=0.1 %PminkvarMax=-1 %PminNoVars=-1 irrad=1.0 kvarmax=6.0 kvarmaxabs=6.0 effcurve=MyEff P-TCurve=MyPvsT VarFollowInverter=true Tyearly=Temp yearly=Solar
New PVSystem.PV_143 Phases=1 Bus1=619.2 kV=0.23 kVA=6.0 Pmpp=7.2 temperature=25 PF=1 WattPriority=yes vmaxpu=1.3 vminpu=0.8 %cutin=0.1 %cutout=0.1 %PminkvarMax=-1 %PminNoVars=-1 irrad=1.0 kvarmax=6.0 kvarmaxabs=6.0 effcurve=MyEff P-TCurve=MyPvsT VarFollowInverter=true Tyearly=Temp yearly=Solar
New PVSystem.PV_144 Phases=1 Bus1=629.3 kV=0.23 kVA=6.0 Pmpp=7.2 temperature=25 PF=1 WattPriority=yes vmaxpu=1.3 vminpu=0.8 %cutin=0.1 %cutout=0.1 %PminkvarMax=-1 %PminNoVars=-1 irrad=1.0 kvarmax=6.0 kvarmaxabs=6.0 effcurve=MyEff P-TCurve=MyPvsT VarFollowInverter=true Tyearly=Temp yearly=Solar
New PVSystem.PV_145 Phases=1 Bus1=639.1 kV=0.23 kVA=6.0 Pmpp=7.2 temperature=25 PF=1 WattPriority=yes vmaxpu=1.3 vminpu=0.8 %cutin=0.1 %cutout=0.1 %PminkvarMax=-1 %PminNoVars=-1 irrad=1.0 kvarmax=6.0 kvarmaxabs=6.0 effcurve=MyEff P-TCurve=MyPvsT VarFollowInverter=true Tyearly=Temp yearly=Solar
New PVSystem.PV_146 Phases=1 Bus1=676.1 kV=0.23 kVA=6.0 Pmpp=7.2 temperature=25 PF=1 WattPriority=yes vmaxpu=1.3 vminpu=0.8 %cutin=0.1 %cutout=0.1 %PminkvarMax=-1 %PminNoVars=-1 irrad=1.0 kvarmax=6.0 kvarmaxabs=6.0 effcurve=MyEff P-TCurve=MyPvsT VarFollowInverter=true Tyearly=Temp yearly=Solar
New PVSystem.PV_147 Phases=1 Bus1=682.1 kV=0.23 kVA=6.0 Pmpp=7.2 temperature=25 PF=1 WattPriority=yes vmaxpu=1.3 vminpu=0.8 %cutin=0.1 %cutout=0.1 %PminkvarMax=-1 %PminNoVars=-1 irrad=1.0 kvarmax=6.0 kvarmaxabs=6.0 effcurve=MyEff P-TCurve=MyPvsT VarFollowInverter=true Tyearly=Temp yearly=Solar
New PVSystem.PV_148 Phases=1 Bus1=688.1 kV=0.23 kVA=6.0 Pmpp=7.2 temperature=25 PF=1 WattPriority=yes vmaxpu=1.3 vminpu=0.8 %cutin=0.1 %cutout=0.1 %PminkvarMax=-1 %PminNoVars=-1 irrad=1.0 kvarmax=6.0 kvarmaxabs=6.0 effcurve=MyEff P-TCurve=MyPvsT VarFollowInverter=true Tyearly=Temp yearly=Solar
New PVSystem.PV_149 Phases=1 Bus1=701.2 kV=0.23 kVA=6.0 Pmpp=7.2 temperature=25 PF=1 WattPriority=yes vmaxpu=1.3 vminpu=0.8 %cutin=0.1 %cutout=0.1 %PminkvarMax=-1 %PminNoVars=-1 irrad=1.0 kvarmax=6.0 kvarmaxabs=6.0 effcurve=MyEff P-TCurve=MyPvsT VarFollowInverter=true Tyearly=Temp yearly=Solar
New PVSystem.PV_150 Phases=1 Bus1=702.1 kV=0.23 kVA=6.0 Pmpp=7.2 temperature=25 PF=1 WattPriority=yes vmaxpu=1.3 vminpu=0.8 %cutin=0.1 %cutout=0.1 %PminkvarMax=-1 %PminNoVars=-1 irrad=1.0 kvarmax=6.0 kvarmaxabs=6.0 effcurve=MyEff P-TCurve=MyPvsT VarFollowInverter=true Tyearly=Temp yearly=Solar
New PVSystem.PV_151 Phases=1 Bus1=755.1 kV=0.23 kVA=6.0 Pmpp=7.2 temperature=25 PF=1 WattPriority=yes vmaxpu=1.3 vminpu=0.8 %cutin=0.1 %cutout=0.1 %PminkvarMax=-1 %PminNoVars=-1 irrad=1.0 kvarmax=6.0 kvarmaxabs=6.0 effcurve=MyEff P-TCurve=MyPvsT VarFollowInverter=true Tyearly=Temp yearly=Solar
New PVSystem.PV_152 Phases=1 Bus1=778.2 kV=0.23 kVA=6.0 Pmpp=7.2 temperature=25 PF=1 WattPriority=yes vmaxpu=1.3 vminpu=0.8 %cutin=0.1 %cutout=0.1 %PminkvarMax=-1 %PminNoVars=-1 irrad=1.0 kvarmax=6.0 kvarmaxabs=6.0 effcurve=MyEff P-TCurve=MyPvsT VarFollowInverter=true Tyearly=Temp yearly=Solar
New PVSystem.PV_153 Phases=1 Bus1=780.2 kV=0.23 kVA=6.0 Pmpp=7.2 temperature=25 PF=1 WattPriority=yes vmaxpu=1.3 vminpu=0.8 %cutin=0.1 %cutout=0.1 %PminkvarMax=-1 %PminNoVars=-1 irrad=1.0 kvarmax=6.0 kvarmaxabs=6.0 effcurve=MyEff P-TCurve=MyPvsT VarFollowInverter=true Tyearly=Temp yearly=Solar
New PVSystem.PV_154 Phases=1 Bus1=785.1 kV=0.23 kVA=6.0 Pmpp=7.2 temperature=25 PF=1 WattPriority=yes vmaxpu=1.3 vminpu=0.8 %cutin=0.1 %cutout=0.1 %PminkvarMax=-1 %PminNoVars=-1 irrad=1.0 kvarmax=6.0 kvarmaxabs=6.0 effcurve=MyEff P-TCurve=MyPvsT VarFollowInverter=true Tyearly=Temp yearly=Solar
New PVSystem.PV_155 Phases=1 Bus1=813.1 kV=0.23 kVA=6.0 Pmpp=7.2 temperature=25 PF=1 WattPriority=yes vmaxpu=1.3 vminpu=0.8 %cutin=0.1 %cutout=0.1 %PminkvarMax=-1 %PminNoVars=-1 irrad=1.0 kvarmax=6.0 kvarmaxabs=6.0 effcurve=MyEff P-TCurve=MyPvsT VarFollowInverter=true Tyearly=Temp yearly=Solar
New PVSystem.PV_156 Phases=1 Bus1=817.3 kV=0.23 kVA=6.0 Pmpp=7.2 temperature=25 PF=1 WattPriority=yes vmaxpu=1.3 vminpu=0.8 %cutin=0.1 %cutout=0.1 %PminkvarMax=-1 %PminNoVars=-1 irrad=1.0 kvarmax=6.0 kvarmaxabs=6.0 effcurve=MyEff P-TCurve=MyPvsT VarFollowInverter=true Tyearly=Temp yearly=Solar
New PVSystem.PV_157 Phases=1 Bus1=835.2 kV=0.23 kVA=6.0 Pmpp=7.2 temperature=25 PF=1 WattPriority=yes vmaxpu=1.3 vminpu=0.8 %cutin=0.1 %cutout=0.1 %PminkvarMax=-1 %PminNoVars=-1 irrad=1.0 kvarmax=6.0 kvarmaxabs=6.0 effcurve=MyEff P-TCurve=MyPvsT VarFollowInverter=true Tyearly=Temp yearly=Solar
New PVSystem.PV_158 Phases=1 Bus1=860.3 kV=0.23 kVA=6.0 Pmpp=7.2 temperature=25 PF=1 WattPriority=yes vmaxpu=1.3 vminpu=0.8 %cutin=0.1 %cutout=0.1 %PminkvarMax=-1 %PminNoVars=-1 irrad=1.0 kvarmax=6.0 kvarmaxabs=6.0 effcurve=MyEff P-TCurve=MyPvsT VarFollowInverter=true Tyearly=Temp yearly=Solar
New PVSystem.PV_159 Phases=1 Bus1=861.3 kV=0.23 kVA=6.0 Pmpp=7.2 temperature=25 PF=1 WattPriority=yes vmaxpu=1.3 vminpu=0.8 %cutin=0.1 %cutout=0.1 %PminkvarMax=-1 %PminNoVars=-1 irrad=1.0 kvarmax=6.0 kvarmaxabs=6.0 effcurve=MyEff P-TCurve=MyPvsT VarFollowInverter=true Tyearly=Temp yearly=Solar
New PVSystem.PV_160 Phases=1 Bus1=886.1 kV=0.23 kVA=6.0 Pmpp=7.2 temperature=25 PF=1 WattPriority=yes vmaxpu=1.3 vminpu=0.8 %cutin=0.1 %cutout=0.1 %PminkvarMax=-1 %PminNoVars=-1 irrad=1.0 kvarmax=6.0 kvarmaxabs=6.0 effcurve=MyEff P-TCurve=MyPvsT VarFollowInverter=true Tyearly=Temp yearly=Solar
New PVSystem.PV_161 Phases=1 Bus1=896.3 kV=0.23 kVA=6.0 Pmpp=7.2 temperature=25 PF=1 WattPriority=yes vmaxpu=1.3 vminpu=0.8 %cutin=0.1 %cutout=0.1 %PminkvarMax=-1 %PminNoVars=-1 irrad=1.0 kvarmax=6.0 kvarmaxabs=6.0 effcurve=MyEff P-TCurve=MyPvsT VarFollowInverter=true Tyearly=Temp yearly=Solar
New PVSystem.PV_162 Phases=1 Bus1=898.3 kV=0.23 kVA=6.0 Pmpp=7.2 temperature=25 PF=1 WattPriority=yes vmaxpu=1.3 vminpu=0.8 %cutin=0.1 %cutout=0.1 %PminkvarMax=-1 %PminNoVars=-1 irrad=1.0 kvarmax=6.0 kvarmaxabs=6.0 effcurve=MyEff P-TCurve=MyPvsT VarFollowInverter=true Tyearly=Temp yearly=Solar
New PVSystem.PV_163 Phases=1 Bus1=899.1 kV=0.23 kVA=6.0 Pmpp=7.2 temperature=25 PF=1 WattPriority=yes vmaxpu=1.3 vminpu=0.8 %cutin=0.1 %cutout=0.1 %PminkvarMax=-1 %PminNoVars=-1 irrad=1.0 kvarmax=6.0 kvarmaxabs=6.0 effcurve=MyEff P-TCurve=MyPvsT VarFollowInverter=true Tyearly=Temp yearly=Solar
New PVSystem.PV_164 Phases=1 Bus1=900.3 kV=0.23 kVA=6.0 Pmpp=7.2 temperature=25 PF=1 WattPriority=yes vmaxpu=1.3 vminpu=0.8 %cutin=0.1 %cutout=0.1 %PminkvarMax=-1 %PminNoVars=-1 irrad=1.0 kvarmax=6.0 kvarmaxabs=6.0 effcurve=MyEff P-TCurve=MyPvsT VarFollowInverter=true Tyearly=Temp yearly=Solar
New PVSystem.PV_165 Phases=1 Bus1=906.3 kV=0.23 kVA=6.0 Pmpp=7.2 temperature=25 PF=1 WattPriority=yes vmaxpu=1.3 vminpu=0.8 %cutin=0.1 %cutout=0.1 %PminkvarMax=-1 %PminNoVars=-1 irrad=1.0 kvarmax=6.0 kvarmaxabs=6.0 effcurve=MyEff P-TCurve=MyPvsT VarFollowInverter=true Tyearly=Temp yearly=Solar
